.subckt psquid        3  5 
L1                 3         1   1.75pH fcheck
L2                 3         4   1.75pH fcheck
B1                 1         5  jmitll area=0.5
R1                 1         5   15.88ohm
Q2                 4         5  jmitll area=0.5
R2                 4         5   15.88ohm
.ends

* Example JTL Basic
X01   psquid     3          7
X02   psquid     6          8
IB01       0          1          pwl(0      0 5p 280u)
L01        4          3          2p        
L02        3          2          5p    
L03        2          6          5p    
L04        6          5          2.031p    
LP01       0          7          0.086p    
LP02       0          8          0.096p    
LPR01      2          1          0.278p    
LRB01      7          9          0.086p    
LRB02      8          10         0.086p    
RB01       9          3          5.23      
RB02       10         6          5.23      
ROUT       5          0          2         
VIN        4          0          pwl(0 0 300p 0 301p 0.5175mV 302p 0.5175mV 303p 0  400p 0 401p 0.5175mV 402p 0.5175mV 403p 0  500p 0 501p 0.5175mV 502p 0.5175mV 503p 0)
.model jmitll jj(rtype=1, vg=2.8mV, cap=0.07pF, r0=100, rN=16, icrit=0.1mA)
.tran 0.25p 1000p 0 0.25p
.print PHASE B1|X01
.print PHASE Q2|X02
.end