
*JSIM model betac~2.4
.model jjmod jj(Rtype=1, Vg=2.9mV, Cap=0.2pF, R0=8000ohm, Rn=170ohm, Icrit=10uA)

.subckt squid        3  7 
L1                 3         1   30pH fcheck
L2                 3         4   30pH fcheck
*IB1                1         5  NOISE(2.6916p 0.0 1.0p) 
B1                 1         5  jjmod area=0.09
*IR1               1         5  NOISE(3.8737p 0.0 1.0p) 
R1                 1         5   200ohm
L3                 5         7   0.03pH fcheck
*IB2                2         6  NOISE(2.6916p 0.0 1.0p) 
B2                 2         6  jjmod area=0.09
*IR2               2         6  NOISE(3.8737p 0.0 1.0p) 
R2                 2         6   200ohm
L4                 6         7   0.03pH fcheck
Q2                 4         2  jjmod area=10
R3                 4         2   2ohm
.ends

.subckt squid1        3  7 
L1                 3         1   50pH fcheck
L2                 3         4   50pH fcheck
*IB1                1         5  NOISE(2.6916p 0.0 1.0p) 
B1                 1         5  jjmod area=0.1
*IR1               1         5  NOISE(3.8737p 0.0 1.0p) 
R1                 1         5   200ohm
L3                 5         7   0.03pH fcheck
*IB2                2         6  NOISE(2.6916p 0.0 1.0p) 
Q2                 2         6  jjmod area=0.1
*IR2               2         6  NOISE(3.8737p 0.0 1.0p) 
R2                 2         6   200ohm
.ends

.subckt HFQ_bias         1  3  4
L1               1        2   2000pH fcheck
L2               2        3   2000pH fcheck
R1               4        2   1000ohm
.ends

.subckt HFQ_bias1         1  3
L1               1        2   500pH fcheck
L2               2        3   500pH fcheck

.ends
*** top cell: JTL
X0       squid         1  0
X1       squid         2  0
X2       squid         3  0
X3       squid         4  0
X4       squid         5  0
X5       squid         6  0
X6       squid         7  0
X7       squid         8  0
X8       squid         9  0
X9       squid         10  0

X10      HFQ_bias    1  2  100
X11      HFQ_bias    2  3  100
X12      HFQ_bias    3  4  100
X13      HFQ_bias    4  5  100
X14      HFQ_bias    5  6  100
X15      HFQ_bias    6  7  100
X16      HFQ_bias    7  8  100
X17      HFQ_bias    8  9  100
X18      HFQ_bias    9  10  100

L1 10 11 100pH
R1 11 0  100ohm
Vb                100         0   pwl(0ps 0uV 100ps 0.06mV)
Vin               1000        0   Pulse(0mV,0.517mV,10ps,1ps,1ps,1ps,500ps)
*Vin                1000         0   pwl(0ps 0mV 1000ps 0uV 1001ps 0.517mV 1002ps 0.517uV 1003ps 0mV 1100ps 0uV 1101ps 0.517mV 1102ps 0.517uV 1103ps 0mV)
Rin               1000        1   1ohm
*** netlist file ***

*** jsim input file ***
.tran 1ps 3000ps 0ps 1ps



.print phase B1|X5
.print phase B2|X5
.print phase Q2|X5
.end






